src/gridlabd/feeder_generator/Input_feeders/R2-35.00-1.glm
clock{
     timezone EST+5EDT;
     timestamp '2000-01-01 0:00:00';
     stoptime '2000-01-01 0:01:00';
}
#set profiler=1
module tape;
module powerflow{
     solver_method NR;
      default_maximum_voltage_error 1e-6;
};

object transformer_configuration {
  name XF1_POLETOP_CS_10;
  power_rating 10.00;
  powerA_rating 0.0;
  powerB_rating 0.0;
  powerC_rating 10.00;
  install_type POLETOP;
  connect_type SINGLE_PHASE_CENTER_TAPPED;
  primary_voltage 19920.0;
  secondary_voltage 120.0;
  resistance 0.00950;
  resistance1 0.01900;
  resistance2 0.01900;
  reactance 0.01040;
  reactance1 0.00520;
  reactance2 0.00520;
  shunt_resistance 147.06;
  shunt_reactance 34.25;
}
object transformer_configuration {
  name XF1_POLETOP_AS_10;
  power_rating 10.00;
  powerA_rating 10.00;
  powerB_rating 0.0;
  powerC_rating 0.0;
  install_type POLETOP;
  connect_type SINGLE_PHASE_CENTER_TAPPED;
  primary_voltage 19920.0;
  secondary_voltage 120.0;
  resistance 0.00950;
  resistance1 0.01900;
  resistance2 0.01900;
  reactance 0.01040;
  reactance1 0.00520;
  reactance2 0.00520;
  shunt_resistance 147.06;
  shunt_reactance 34.25;
}
object transformer_configuration {
  name XF1_POLETOP_BS_10;
  power_rating 10.00;
  powerA_rating 0.0;
  powerB_rating 10.00;
  powerC_rating 0.0;
  install_type POLETOP;
  connect_type SINGLE_PHASE_CENTER_TAPPED;
  primary_voltage 19920.0;
  secondary_voltage 120.0;
  resistance 0.00950;
  resistance1 0.01900;
  resistance2 0.01900;
  reactance 0.01040;
  reactance1 0.00520;
  reactance2 0.00520;
  shunt_resistance 147.06;
  shunt_reactance 34.25;
}
object transformer_configuration {
  name XF1_POLETOP_AS_15;
  power_rating 15.00;
  powerA_rating 15.00;
  powerB_rating 0.0;
  powerC_rating 0.0;
  install_type POLETOP;
  connect_type SINGLE_PHASE_CENTER_TAPPED;
  primary_voltage 19920.0;
  secondary_voltage 120.0;
  resistance 0.00850;
  resistance1 0.01700;
  resistance2 0.01700;
  reactance 0.01176;
  reactance1 0.00588;
  reactance2 0.00588;
  shunt_resistance 166.67;
  shunt_reactance 39.53;
}
object transformer_configuration {
  name XF1_POLETOP_BS_15;
  power_rating 15.00;
  powerA_rating 0.0;
  powerB_rating 15.00;
  powerC_rating 0.0;
  install_type POLETOP;
  connect_type SINGLE_PHASE_CENTER_TAPPED;
  primary_voltage 19920.0;
  secondary_voltage 120.0;
  resistance 0.00850;
  resistance1 0.01700;
  resistance2 0.01700;
  reactance 0.01176;
  reactance1 0.00588;
  reactance2 0.00588;
  shunt_resistance 166.67;
  shunt_reactance 39.53;
}
object transformer_configuration {
  name XF1_POLETOP_CS_50;
  power_rating 50.00;
  powerA_rating 0.0;
  powerB_rating 0.0;
  powerC_rating 50.00;
  install_type POLETOP;
  connect_type SINGLE_PHASE_CENTER_TAPPED;
  primary_voltage 19920.0;
  secondary_voltage 120.0;
  resistance 0.00650;
  resistance1 0.01300;
  resistance2 0.01300;
  reactance 0.01416;
  reactance1 0.00708;
  reactance2 0.00708;
  shunt_resistance 222.22;
  shunt_reactance 64.94;
}
object transformer_configuration {
  name XF1_POLETOP_BS_25;
  power_rating 25.00;
  powerA_rating 0.0;
  powerB_rating 25.00;
  powerC_rating 0.0;
  install_type POLETOP;
  connect_type SINGLE_PHASE_CENTER_TAPPED;
  primary_voltage 19920.0;
  secondary_voltage 120.0;
  resistance 0.00800;
  resistance1 0.01600;
  resistance2 0.01600;
  reactance 0.01208;
  reactance1 0.00604;
  reactance2 0.00604;
  shunt_resistance 192.31;
  shunt_reactance 51.81;
}
object transformer_configuration {
  name XF1_POLETOP_CS_25;
  power_rating 25.00;
  powerA_rating 0.0;
  powerB_rating 0.0;
  powerC_rating 25.00;
  install_type POLETOP;
  connect_type SINGLE_PHASE_CENTER_TAPPED;
  primary_voltage 19920.0;
  secondary_voltage 120.0;
  resistance 0.00800;
  resistance1 0.01600;
  resistance2 0.01600;
  reactance 0.01208;
  reactance1 0.00604;
  reactance2 0.00604;
  shunt_resistance 192.31;
  shunt_reactance 51.81;
}
object transformer_configuration {
  name XF1_POLETOP_CS_15;
  power_rating 15.00;
  powerA_rating 0.0;
  powerB_rating 0.0;
  powerC_rating 15.00;
  install_type POLETOP;
  connect_type SINGLE_PHASE_CENTER_TAPPED;
  primary_voltage 19920.0;
  secondary_voltage 120.0;
  resistance 0.00850;
  resistance1 0.01700;
  resistance2 0.01700;
  reactance 0.01176;
  reactance1 0.00588;
  reactance2 0.00588;
  shunt_resistance 166.67;
  shunt_reactance 39.53;
}
object transformer_configuration {
  name XF1_POLETOP_CS_37p5;
  power_rating 37.50;
  powerA_rating 0.0;
  powerB_rating 0.0;
  powerC_rating 37.50;
  install_type POLETOP;
  connect_type SINGLE_PHASE_CENTER_TAPPED;
  primary_voltage 19920.0;
  secondary_voltage 120.0;
  resistance 0.00725;
  resistance1 0.01450;
  resistance2 0.01450;
  reactance 0.01320;
  reactance1 0.00660;
  reactance2 0.00660;
  shunt_resistance 212.77;
  shunt_reactance 57.47;
}
object transformer_configuration {
  name XF1_PADMOUNT_AS_10;
  power_rating 10.00;
  powerA_rating 10.00;
  powerB_rating 0.0;
  powerC_rating 0.0;
  install_type PADMOUNT;
  connect_type SINGLE_PHASE_CENTER_TAPPED;
  primary_voltage 19920.0;
  secondary_voltage 120.0;
  resistance 0.00950;
  resistance1 0.01900;
  resistance2 0.01900;
  reactance 0.01040;
  reactance1 0.00520;
  reactance2 0.00520;
  shunt_resistance 147.06;
  shunt_reactance 34.25;
}
object transformer_configuration {
  name XF1_PADMOUNT_BS_10;
  power_rating 10.00;
  powerA_rating 0.0;
  powerB_rating 10.00;
  powerC_rating 0.0;
  install_type PADMOUNT;
  connect_type SINGLE_PHASE_CENTER_TAPPED;
  primary_voltage 19920.0;
  secondary_voltage 120.0;
  resistance 0.00950;
  resistance1 0.01900;
  resistance2 0.01900;
  reactance 0.01040;
  reactance1 0.00520;
  reactance2 0.00520;
  shunt_resistance 147.06;
  shunt_reactance 34.25;
}
object transformer_configuration {
  name XF1_PADMOUNT_CS_10;
  power_rating 10.00;
  powerA_rating 0.0;
  powerB_rating 0.0;
  powerC_rating 10.00;
  install_type PADMOUNT;
  connect_type SINGLE_PHASE_CENTER_TAPPED;
  primary_voltage 19920.0;
  secondary_voltage 120.0;
  resistance 0.00950;
  resistance1 0.01900;
  resistance2 0.01900;
  reactance 0.01040;
  reactance1 0.00520;
  reactance2 0.00520;
  shunt_resistance 147.06;
  shunt_reactance 34.25;
}
object transformer_configuration {
  name XF1_PADMOUNT_BS_15;
  power_rating 15.00;
  powerA_rating 0.0;
  powerB_rating 15.00;
  powerC_rating 0.0;
  install_type PADMOUNT;
  connect_type SINGLE_PHASE_CENTER_TAPPED;
  primary_voltage 19920.0;
  secondary_voltage 120.0;
  resistance 0.00850;
  resistance1 0.01700;
  resistance2 0.01700;
  reactance 0.01176;
  reactance1 0.00588;
  reactance2 0.00588;
  shunt_resistance 166.67;
  shunt_reactance 39.53;
}
object transformer_configuration {
  name XF1_PADMOUNT_CS_15;
  power_rating 15.00;
  powerA_rating 0.0;
  powerB_rating 0.0;
  powerC_rating 15.00;
  install_type PADMOUNT;
  connect_type SINGLE_PHASE_CENTER_TAPPED;
  primary_voltage 19920.0;
  secondary_voltage 120.0;
  resistance 0.00850;
  resistance1 0.01700;
  resistance2 0.01700;
  reactance 0.01176;
  reactance1 0.00588;
  reactance2 0.00588;
  shunt_resistance 166.67;
  shunt_reactance 39.53;
}
object transformer_configuration {
  name XF1_PADMOUNT_AS_37p5;
  power_rating 37.50;
  powerA_rating 37.50;
  powerB_rating 0.0;
  powerC_rating 0.0;
  install_type PADMOUNT;
  connect_type SINGLE_PHASE_CENTER_TAPPED;
  primary_voltage 19920.0;
  secondary_voltage 120.0;
  resistance 0.00725;
  resistance1 0.01450;
  resistance2 0.01450;
  reactance 0.01320;
  reactance1 0.00660;
  reactance2 0.00660;
  shunt_resistance 212.77;
  shunt_reactance 57.47;
}
object transformer_configuration {
  name XF1_PADMOUNT_BS_37p5;
  power_rating 37.50;
  powerA_rating 0.0;
  powerB_rating 37.50;
  powerC_rating 0.0;
  install_type PADMOUNT;
  connect_type SINGLE_PHASE_CENTER_TAPPED;
  primary_voltage 19920.0;
  secondary_voltage 120.0;
  resistance 0.00725;
  resistance1 0.01450;
  resistance2 0.01450;
  reactance 0.01320;
  reactance1 0.00660;
  reactance2 0.00660;
  shunt_resistance 212.77;
  shunt_reactance 57.47;
}
object transformer_configuration {
  name XF1_PADMOUNT_CS_37p5;
  power_rating 37.50;
  powerA_rating 0.0;
  powerB_rating 0.0;
  powerC_rating 37.50;
  install_type PADMOUNT;
  connect_type SINGLE_PHASE_CENTER_TAPPED;
  primary_voltage 19920.0;
  secondary_voltage 120.0;
  resistance 0.00725;
  resistance1 0.01450;
  resistance2 0.01450;
  reactance 0.01320;
  reactance1 0.00660;
  reactance2 0.00660;
  shunt_resistance 212.77;
  shunt_reactance 57.47;
}
object transformer_configuration {
  name XF1_POLETOP_AS_37p5;
  power_rating 37.50;
  powerA_rating 37.50;
  powerB_rating 0.0;
  powerC_rating 0.0;
  install_type POLETOP;
  connect_type SINGLE_PHASE_CENTER_TAPPED;
  primary_voltage 19920.0;
  secondary_voltage 120.0;
  resistance 0.00725;
  resistance1 0.01450;
  resistance2 0.01450;
  reactance 0.01320;
  reactance1 0.00660;
  reactance2 0.00660;
  shunt_resistance 212.77;
  shunt_reactance 57.47;
}
object transformer_configuration {
  name XF1_POLETOP_BS_37p5;
  power_rating 37.50;
  powerA_rating 0.0;
  powerB_rating 37.50;
  powerC_rating 0.0;
  install_type POLETOP;
  connect_type SINGLE_PHASE_CENTER_TAPPED;
  primary_voltage 19920.0;
  secondary_voltage 120.0;
  resistance 0.00725;
  resistance1 0.01450;
  resistance2 0.01450;
  reactance 0.01320;
  reactance1 0.00660;
  reactance2 0.00660;
  shunt_resistance 212.77;
  shunt_reactance 57.47;
}
object transformer_configuration {
  name XF1_POLETOP_AS_25;
  power_rating 25.00;
  powerA_rating 25.00;
  powerB_rating 0.0;
  powerC_rating 0.0;
  install_type POLETOP;
  connect_type SINGLE_PHASE_CENTER_TAPPED;
  primary_voltage 19920.0;
  secondary_voltage 120.0;
  resistance 0.00800;
  resistance1 0.01600;
  resistance2 0.01600;
  reactance 0.01208;
  reactance1 0.00604;
  reactance2 0.00604;
  shunt_resistance 192.31;
  shunt_reactance 51.81;
}
object transformer_configuration {
  name XF1_POLETOP_AS_5;
  power_rating 5.00;
  powerA_rating 5.00;
  powerB_rating 0.0;
  powerC_rating 0.0;
  install_type POLETOP;
  connect_type SINGLE_PHASE_CENTER_TAPPED;
  primary_voltage 19920.0;
  secondary_voltage 120.0;
  resistance 0.01050;
  resistance1 0.02100;
  resistance2 0.02100;
  reactance 0.01224;
  reactance1 0.00612;
  reactance2 0.00612;
  shunt_resistance 111.11;
  shunt_reactance 29.59;
}
object transformer_configuration {
  name XF1_POLETOP_AS_75;
  power_rating 75.00;
  powerA_rating 75.00;
  powerB_rating 0.0;
  powerC_rating 0.0;
  install_type POLETOP;
  connect_type SINGLE_PHASE_CENTER_TAPPED;
  primary_voltage 19920.0;
  secondary_voltage 120.0;
  resistance 0.00625;
  resistance1 0.01250;
  resistance2 0.01250;
  reactance 0.01352;
  reactance1 0.00676;
  reactance2 0.00676;
  shunt_resistance 238.10;
  shunt_reactance 67.11;
}
object transformer_configuration {
  name XF1_POLETOP_BS_75;
  power_rating 75.00;
  powerA_rating 0.0;
  powerB_rating 75.00;
  powerC_rating 0.0;
  install_type POLETOP;
  connect_type SINGLE_PHASE_CENTER_TAPPED;
  primary_voltage 19920.0;
  secondary_voltage 120.0;
  resistance 0.00625;
  resistance1 0.01250;
  resistance2 0.01250;
  reactance 0.01352;
  reactance1 0.00676;
  reactance2 0.00676;
  shunt_resistance 238.10;
  shunt_reactance 67.11;
}
object transformer_configuration {
  name XF1_POLETOP_CS_75;
  power_rating 75.00;
  powerA_rating 0.0;
  powerB_rating 0.0;
  powerC_rating 75.00;
  install_type POLETOP;
  connect_type SINGLE_PHASE_CENTER_TAPPED;
  primary_voltage 19920.0;
  secondary_voltage 120.0;
  resistance 0.00625;
  resistance1 0.01250;
  resistance2 0.01250;
  reactance 0.01352;
  reactance1 0.00676;
  reactance2 0.00676;
  shunt_resistance 238.10;
  shunt_reactance 67.11;
}
object transformer_configuration {
  name XF1_POLETOP_AS_50;
  power_rating 50.00;
  powerA_rating 50.00;
  powerB_rating 0.0;
  powerC_rating 0.0;
  install_type POLETOP;
  connect_type SINGLE_PHASE_CENTER_TAPPED;
  primary_voltage 19920.0;
  secondary_voltage 120.0;
  resistance 0.00650;
  resistance1 0.01300;
  resistance2 0.01300;
  reactance 0.01416;
  reactance1 0.00708;
  reactance2 0.00708;
  shunt_resistance 222.22;
  shunt_reactance 64.94;
}
object transformer_configuration {
  name XF3_POLETOP_ABCN_30;
  power_rating 30.00;
  powerA_rating 10.00;
  powerB_rating 10.00;
  powerC_rating 10.00;
  install_type POLETOP;
  connect_type WYE_WYE;
  primary_voltage 34500.0;
  secondary_voltage 208.0;
  resistance 0.01900;
  reactance 0.01770;
  shunt_resistance 126.58;
  shunt_reactance 22.57;
}
object transformer_configuration {
  name XF1_POLETOP_AN_15;
  power_rating 15.00;
  powerA_rating 15.00;
  powerB_rating 0.0;
  powerC_rating 0.0;
  install_type POLETOP;
  connect_type WYE_WYE;
  primary_voltage 34500.0;
  secondary_voltage 208.0;
  resistance 0.01900;
  reactance 0.01770;
  shunt_resistance 126.58;
  shunt_reactance 22.57;
}
object transformer_configuration {
  name XF1_POLETOP_AN_50;
  power_rating 50.00;
  powerA_rating 50.00;
  powerB_rating 0.0;
  powerC_rating 0.0;
  install_type POLETOP;
  connect_type WYE_WYE;
  primary_voltage 34500.0;
  secondary_voltage 208.0;
  resistance 0.01600;
  reactance 0.02420;
  shunt_resistance 158.73;
  shunt_reactance 30.86;
}
object transformer_configuration {
  name XF1_POLETOP_AN_10;
  power_rating 10.00;
  powerA_rating 10.00;
  powerB_rating 0.0;
  powerC_rating 0.0;
  install_type POLETOP;
  connect_type WYE_WYE;
  primary_voltage 34500.0;
  secondary_voltage 208.0;
  resistance 0.01900;
  reactance 0.01770;
  shunt_resistance 126.58;
  shunt_reactance 22.57;
}
object transformer_configuration {
  name XF3_POLETOP_ABCN_75;
  power_rating 75.00;
  powerA_rating 25.00;
  powerB_rating 25.00;
  powerC_rating 25.00;
  install_type POLETOP;
  connect_type WYE_WYE;
  primary_voltage 34500.0;
  secondary_voltage 208.0;
  resistance 0.01600;
  reactance 0.02420;
  shunt_resistance 158.73;
  shunt_reactance 30.86;
}
object transformer_configuration {
  name XF1_POLETOP_BN_10;
  power_rating 10.00;
  powerA_rating 0.0;
  powerB_rating 10.00;
  powerC_rating 0.0;
  install_type POLETOP;
  connect_type WYE_WYE;
  primary_voltage 34500.0;
  secondary_voltage 208.0;
  resistance 0.01900;
  reactance 0.01770;
  shunt_resistance 126.58;
  shunt_reactance 22.57;
}
object transformer_configuration {
  name XF1_POLETOP_BN_25;
  power_rating 25.00;
  powerA_rating 0.0;
  powerB_rating 25.00;
  powerC_rating 0.0;
  install_type POLETOP;
  connect_type WYE_WYE;
  primary_voltage 34500.0;
  secondary_voltage 208.0;
  resistance 0.01900;
  reactance 0.01770;
  shunt_resistance 126.58;
  shunt_reactance 22.57;
}
object transformer_configuration {
  name XF3_POLETOP_ABCN_45;
  power_rating 45.00;
  powerA_rating 15.00;
  powerB_rating 15.00;
  powerC_rating 15.00;
  install_type POLETOP;
  connect_type WYE_WYE;
  primary_voltage 34500.0;
  secondary_voltage 208.0;
  resistance 0.01750;
  reactance 0.02120;
  shunt_resistance 142.86;
  shunt_reactance 25.38;
}
object transformer_configuration {
  name XF1_POLETOP_CN_37p5;
  power_rating 37.50;
  powerA_rating 0.0;
  powerB_rating 0.0;
  powerC_rating 37.50;
  install_type POLETOP;
  connect_type WYE_WYE;
  primary_voltage 34500.0;
  secondary_voltage 208.0;
  resistance 0.01750;
  reactance 0.02120;
  shunt_resistance 142.86;
  shunt_reactance 25.38;
}
object transformer_configuration {
  name XF1_PADMOUNT_AN_25;
  power_rating 25.00;
  powerA_rating 25.00;
  powerB_rating 0.0;
  powerC_rating 0.0;
  install_type PADMOUNT;
  connect_type WYE_WYE;
  primary_voltage 34500.0;
  secondary_voltage 208.0;
  resistance 0.01900;
  reactance 0.01770;
  shunt_resistance 126.58;
  shunt_reactance 22.57;
}
object transformer_configuration {
  name XF1_POLETOP_BN_37p5;
  power_rating 37.50;
  powerA_rating 0.0;
  powerB_rating 37.50;
  powerC_rating 0.0;
  install_type POLETOP;
  connect_type WYE_WYE;
  primary_voltage 34500.0;
  secondary_voltage 208.0;
  resistance 0.01750;
  reactance 0.02120;
  shunt_resistance 142.86;
  shunt_reactance 25.38;
}
object transformer_configuration {
  name XF3_POLETOP_ABCN_112p5;
  power_rating 112.50;
  powerA_rating 37.50;
  powerB_rating 37.50;
  powerC_rating 37.50;
  install_type POLETOP;
  connect_type WYE_WYE;
  primary_voltage 34500.0;
  secondary_voltage 480.0;
  resistance 0.01450;
  reactance 0.02850;
  shunt_resistance 169.49;
  shunt_reactance 33.44;
}
object transformer_configuration {
  name XF1_POLETOP_CN_25;
  power_rating 25.00;
  powerA_rating 0.0;
  powerB_rating 0.0;
  powerC_rating 25.00;
  install_type POLETOP;
  connect_type WYE_WYE;
  primary_voltage 34500.0;
  secondary_voltage 208.0;
  resistance 0.01900;
  reactance 0.01770;
  shunt_resistance 126.58;
  shunt_reactance 22.57;
}
object transformer_configuration {
  name XF1_POLETOP_AN_75;
  power_rating 75.00;
  powerA_rating 75.00;
  powerB_rating 0.0;
  powerC_rating 0.0;
  install_type POLETOP;
  connect_type WYE_WYE;
  primary_voltage 34500.0;
  secondary_voltage 208.0;
  resistance 0.01600;
  reactance 0.02420;
  shunt_resistance 158.73;
  shunt_reactance 30.86;
}
object transformer_configuration {
  name XF1_POLETOP_AN_25;
  power_rating 25.00;
  powerA_rating 25.00;
  powerB_rating 0.0;
  powerC_rating 0.0;
  install_type POLETOP;
  connect_type WYE_WYE;
  primary_voltage 34500.0;
  secondary_voltage 208.0;
  resistance 0.01900;
  reactance 0.01770;
  shunt_resistance 126.58;
  shunt_reactance 22.57;
}
object transformer_configuration {
  name XF1_POLETOP_BN_15;
  power_rating 15.00;
  powerA_rating 0.0;
  powerB_rating 15.00;
  powerC_rating 0.0;
  install_type POLETOP;
  connect_type WYE_WYE;
  primary_voltage 34500.0;
  secondary_voltage 208.0;
  resistance 0.01900;
  reactance 0.01770;
  shunt_resistance 126.58;
  shunt_reactance 22.57;
}
object transformer_configuration {
  name XF1_PADMOUNT_BN_10;
  power_rating 10.00;
  powerA_rating 0.0;
  powerB_rating 10.00;
  powerC_rating 0.0;
  install_type PADMOUNT;
  connect_type WYE_WYE;
  primary_voltage 34500.0;
  secondary_voltage 208.0;
  resistance 0.01900;
  reactance 0.01770;
  shunt_resistance 126.58;
  shunt_reactance 22.57;
}
object transformer_configuration {
  name XF1_PADMOUNT_BN_15;
  power_rating 15.00;
  powerA_rating 0.0;
  powerB_rating 15.00;
  powerC_rating 0.0;
  install_type PADMOUNT;
  connect_type WYE_WYE;
  primary_voltage 34500.0;
  secondary_voltage 208.0;
  resistance 0.01900;
  reactance 0.01770;
  shunt_resistance 126.58;
  shunt_reactance 22.57;
}
object transformer_configuration {
  name XF1_PADMOUNT_CN_37p5;
  power_rating 37.50;
  powerA_rating 0.0;
  powerB_rating 0.0;
  powerC_rating 37.50;
  install_type PADMOUNT;
  connect_type WYE_WYE;
  primary_voltage 34500.0;
  secondary_voltage 208.0;
  resistance 0.01750;
  reactance 0.02120;
  shunt_resistance 142.86;
  shunt_reactance 25.38;
}
object transformer_configuration {
  name XF1_POLETOP_CN_10;
  power_rating 10.00;
  powerA_rating 0.0;
  powerB_rating 0.0;
  powerC_rating 10.00;
  install_type POLETOP;
  connect_type WYE_WYE;
  primary_voltage 34500.0;
  secondary_voltage 208.0;
  resistance 0.01900;
  reactance 0.01770;
  shunt_resistance 126.58;
  shunt_reactance 22.57;
}
object transformer_configuration {
  name XF1_PADMOUNT_BN_37p5;
  power_rating 37.50;
  powerA_rating 0.0;
  powerB_rating 37.50;
  powerC_rating 0.0;
  install_type PADMOUNT;
  connect_type WYE_WYE;
  primary_voltage 34500.0;
  secondary_voltage 208.0;
  resistance 0.01750;
  reactance 0.02120;
  shunt_resistance 142.86;
  shunt_reactance 25.38;
}
object transformer_configuration {
  name XF3_PADMOUNT_ABCN_75;
  power_rating 75.00;
  powerA_rating 25.00;
  powerB_rating 25.00;
  powerC_rating 25.00;
  install_type PADMOUNT;
  connect_type WYE_WYE;
  primary_voltage 34500.0;
  secondary_voltage 208.0;
  resistance 0.01600;
  reactance 0.02420;
  shunt_resistance 158.73;
  shunt_reactance 30.86;
}
object transformer_configuration {
  name XF1_PADMOUNT_CN_10;
  power_rating 10.00;
  powerA_rating 0.0;
  powerB_rating 0.0;
  powerC_rating 10.00;
  install_type PADMOUNT;
  connect_type WYE_WYE;
  primary_voltage 34500.0;
  secondary_voltage 208.0;
  resistance 0.01900;
  reactance 0.01770;
  shunt_resistance 126.58;
  shunt_reactance 22.57;
}
object transformer_configuration {
  name XF2_POLETOP_BCN_30;
  power_rating 30.00;
  powerA_rating 0.0;
  powerB_rating 15.00;
  powerC_rating 15.00;
  install_type POLETOP;
  connect_type WYE_WYE;
  primary_voltage 34500.0;
  secondary_voltage 208.0;
  resistance 0.01900;
  reactance 0.01770;
  shunt_resistance 126.58;
  shunt_reactance 22.57;
}
object transformer_configuration {
  name XF1_POLETOP_CN_15;
  power_rating 15.00;
  powerA_rating 0.0;
  powerB_rating 0.0;
  powerC_rating 15.00;
  install_type POLETOP;
  connect_type WYE_WYE;
  primary_voltage 34500.0;
  secondary_voltage 208.0;
  resistance 0.01900;
  reactance 0.01770;
  shunt_resistance 126.58;
  shunt_reactance 22.57;
}
object transformer_configuration {
  name XF3_PADMOUNT_ABCN_45;
  power_rating 45.00;
  powerA_rating 15.00;
  powerB_rating 15.00;
  powerC_rating 15.00;
  install_type PADMOUNT;
  connect_type WYE_WYE;
  primary_voltage 34500.0;
  secondary_voltage 208.0;
  resistance 0.01750;
  reactance 0.02120;
  shunt_resistance 142.86;
  shunt_reactance 25.38;
}
object transformer_configuration {
  name XF3_PADMOUNT_ABCN_30;
  power_rating 30.00;
  powerA_rating 10.00;
  powerB_rating 10.00;
  powerC_rating 10.00;
  install_type PADMOUNT;
  connect_type WYE_WYE;
  primary_voltage 34500.0;
  secondary_voltage 208.0;
  resistance 0.01900;
  reactance 0.01770;
  shunt_resistance 126.58;
  shunt_reactance 22.57;
}
object transformer_configuration {
  name XF3_POLETOP_ABCN_150;
  power_rating 150.00;
  powerA_rating 50.00;
  powerB_rating 50.00;
  powerC_rating 50.00;
  install_type POLETOP;
  connect_type WYE_WYE;
  primary_voltage 34500.0;
  secondary_voltage 480.0;
  resistance 0.01300;
  reactance 0.03250;
  shunt_resistance 185.19;
  shunt_reactance 36.36;
}
object transformer_configuration {
  name XF2_POLETOP_ACN_30;
  power_rating 30.00;
  powerA_rating 15.00;
  powerB_rating 0.0;
  powerC_rating 15.00;
  install_type POLETOP;
  connect_type WYE_WYE;
  primary_voltage 34500.0;
  secondary_voltage 208.0;
  resistance 0.01900;
  reactance 0.01770;
  shunt_resistance 126.58;
  shunt_reactance 22.57;
}
object transformer_configuration {
  name XF1_POLETOP_AN_5;
  power_rating 5.00;
  powerA_rating 5.00;
  powerB_rating 0.0;
  powerC_rating 0.0;
  install_type POLETOP;
  connect_type WYE_WYE;
  primary_voltage 34500.0;
  secondary_voltage 208.0;
  resistance 0.01900;
  reactance 0.01770;
  shunt_resistance 126.58;
  shunt_reactance 22.57;
}
object transformer_configuration {
  name XF2_POLETOP_ABN_30;
  power_rating 30.00;
  powerA_rating 15.00;
  powerB_rating 15.00;
  powerC_rating 0.0;
  install_type POLETOP;
  connect_type WYE_WYE;
  primary_voltage 34500.0;
  secondary_voltage 208.0;
  resistance 0.01900;
  reactance 0.01770;
  shunt_resistance 126.58;
  shunt_reactance 22.57;
}
object transformer_configuration {
  name XF2_PADMOUNT_ABN_30;
  power_rating 30.00;
  powerA_rating 15.00;
  powerB_rating 15.00;
  powerC_rating 0.0;
  install_type PADMOUNT;
  connect_type WYE_WYE;
  primary_voltage 34500.0;
  secondary_voltage 208.0;
  resistance 0.01900;
  reactance 0.01770;
  shunt_resistance 126.58;
  shunt_reactance 22.57;
}
object transformer_configuration {
  name XF1_POLETOP_AN_37p5;
  power_rating 37.50;
  powerA_rating 37.50;
  powerB_rating 0.0;
  powerC_rating 0.0;
  install_type POLETOP;
  connect_type WYE_WYE;
  primary_voltage 34500.0;
  secondary_voltage 208.0;
  resistance 0.01750;
  reactance 0.02120;
  shunt_resistance 142.86;
  shunt_reactance 25.38;
}
object transformer_configuration {
  name XF1_POLETOP_BN_50;
  power_rating 50.00;
  powerA_rating 0.0;
  powerB_rating 50.00;
  powerC_rating 0.0;
  install_type POLETOP;
  connect_type WYE_WYE;
  primary_voltage 34500.0;
  secondary_voltage 208.0;
  resistance 0.01600;
  reactance 0.02420;
  shunt_resistance 158.73;
  shunt_reactance 30.86;
}
object transformer_configuration {
  name XF1_PADMOUNT_AN_10;
  power_rating 10.00;
  powerA_rating 10.00;
  powerB_rating 0.0;
  powerC_rating 0.0;
  install_type PADMOUNT;
  connect_type WYE_WYE;
  primary_voltage 34500.0;
  secondary_voltage 208.0;
  resistance 0.01900;
  reactance 0.01770;
  shunt_resistance 126.58;
  shunt_reactance 22.57;
}
object transformer_configuration {
  name XF3_POLETOP_ABCN_500;
  power_rating 500.00;
  powerA_rating 166.67;
  powerB_rating 166.67;
  powerC_rating 166.67;
  install_type POLETOP;
  connect_type WYE_WYE;
  primary_voltage 34500.0;
  secondary_voltage 480.0;
  resistance 0.01100;
  reactance 0.04880;
  shunt_resistance 222.22;
  shunt_reactance 44.25;
}
object transformer_configuration {
  name XF1_PADMOUNT_AN_5;
  power_rating 5.00;
  powerA_rating 5.00;
  powerB_rating 0.0;
  powerC_rating 0.0;
  install_type PADMOUNT;
  connect_type WYE_WYE;
  primary_voltage 34500.0;
  secondary_voltage 208.0;
  resistance 0.01900;
  reactance 0.01770;
  shunt_resistance 126.58;
  shunt_reactance 22.57;
}
object transformer_configuration {
  name XF2_POLETOP_BCN_45;
  power_rating 45.00;
  powerA_rating 0.0;
  powerB_rating 22.50;
  powerC_rating 22.50;
  install_type POLETOP;
  connect_type WYE_WYE;
  primary_voltage 34500.0;
  secondary_voltage 208.0;
  resistance 0.01750;
  reactance 0.02120;
  shunt_resistance 142.86;
  shunt_reactance 25.38;
}
object transformer_configuration {
  name XF3_POLETOP_ABCN_225;
  power_rating 225.00;
  powerA_rating 75.00;
  powerB_rating 75.00;
  powerC_rating 75.00;
  install_type POLETOP;
  connect_type WYE_WYE;
  primary_voltage 34500.0;
  secondary_voltage 480.0;
  resistance 0.01300;
  reactance 0.03520;
  shunt_resistance 200.00;
  shunt_reactance 40.00;
}
object transformer_configuration {
  name XF1_PADMOUNT_CN_25;
  power_rating 25.00;
  powerA_rating 0.0;
  powerB_rating 0.0;
  powerC_rating 25.00;
  install_type PADMOUNT;
  connect_type WYE_WYE;
  primary_voltage 34500.0;
  secondary_voltage 208.0;
  resistance 0.01900;
  reactance 0.01770;
  shunt_resistance 126.58;
  shunt_reactance 22.57;
}
object transformer_configuration {
  name XF3_PADMOUNT_ABCN_112p5;
  power_rating 112.50;
  powerA_rating 37.50;
  powerB_rating 37.50;
  powerC_rating 37.50;
  install_type PADMOUNT;
  connect_type WYE_WYE;
  primary_voltage 34500.0;
  secondary_voltage 480.0;
  resistance 0.01450;
  reactance 0.02850;
  shunt_resistance 169.49;
  shunt_reactance 33.44;
}
object transformer_configuration {
  name XF3_PADMOUNT_ABCN_150;
  power_rating 150.00;
  powerA_rating 50.00;
  powerB_rating 50.00;
  powerC_rating 50.00;
  install_type PADMOUNT;
  connect_type WYE_WYE;
  primary_voltage 34500.0;
  secondary_voltage 480.0;
  resistance 0.01300;
  reactance 0.03250;
  shunt_resistance 185.19;
  shunt_reactance 36.36;
}
object transformer_configuration {
  name XF3_PADMOUNT_ABCN_225;
  power_rating 225.00;
  powerA_rating 75.00;
  powerB_rating 75.00;
  powerC_rating 75.00;
  install_type PADMOUNT;
  connect_type WYE_WYE;
  primary_voltage 34500.0;
  secondary_voltage 480.0;
  resistance 0.01300;
  reactance 0.03520;
  shunt_resistance 200.00;
  shunt_reactance 40.00;
}
object transformer_configuration {
  name XF3_PADMOUNT_ABCN_750;
  power_rating 750.00;
  powerA_rating 250.00;
  powerB_rating 250.00;
  powerC_rating 250.00;
  install_type PADMOUNT;
  connect_type WYE_WYE;
  primary_voltage 34500.0;
  secondary_voltage 480.0;
  resistance 0.00970;
  reactance 0.05110;
  shunt_resistance 227.27;
  shunt_reactance 52.91;
}
object transformer_configuration {
  name XF3_POLETOP_ABCN_750;
  power_rating 750.00;
  powerA_rating 250.00;
  powerB_rating 250.00;
  powerC_rating 250.00;
  install_type POLETOP;
  connect_type WYE_WYE;
  primary_voltage 34500.0;
  secondary_voltage 480.0;
  resistance 0.00970;
  reactance 0.05110;
  shunt_resistance 227.27;
  shunt_reactance 52.91;
}
object transformer_configuration {
  name XF3_POLETOP_ABCN_300;
  power_rating 300.00;
  powerA_rating 100.00;
  powerB_rating 100.00;
  powerC_rating 100.00;
  install_type POLETOP;
  connect_type WYE_WYE;
  primary_voltage 34500.0;
  secondary_voltage 480.0;
  resistance 0.01300;
  reactance 0.04830;
  shunt_resistance 217.39;
  shunt_reactance 44.44;
}
object transformer_configuration {
  name XF2_POLETOP_ACN_75;
  power_rating 75.00;
  powerA_rating 37.50;
  powerB_rating 0.0;
  powerC_rating 37.50;
  install_type POLETOP;
  connect_type WYE_WYE;
  primary_voltage 34500.0;
  secondary_voltage 208.0;
  resistance 0.01600;
  reactance 0.02420;
  shunt_resistance 158.73;
  shunt_reactance 30.86;
}
object regulator_configuration {
  name feeder_reg_cfg;
  Control OUTPUT_VOLTAGE;
  band_center 20748;
  band_width 332.0;
  connect_type WYE_WYE;
  time_delay 30;
  raise_taps 16;
  lower_taps 16;
  regulation 0.10;
  tap_pos_A 0;
  tap_pos_B 0;
  tap_pos_C 0;
}
object overhead_line_conductor {
  name ID_2821;
  rating.summer.continuous 84.0;
  geometric_mean_radius 0.00417 ft;
  resistance 3.84030;
}
object overhead_line_conductor {
  name ID_2822;
  rating.summer.continuous 164.0;
  geometric_mean_radius 0.00883 ft;
  resistance 1.51970;
}
object overhead_line_conductor {
  name ID_2823;
  rating.summer.continuous 149.0;
  geometric_mean_radius 0.00663 ft;
  resistance 1.50000;
}
object overhead_line_conductor {
  name ID_2824;
  rating.summer.continuous 334.0;
  geometric_mean_radius 0.00814 ft;
  resistance 0.56300;
}
object overhead_line_conductor {
  name ID_2825;
  rating.summer.continuous 443.0;
  geometric_mean_radius 0.02270 ft;
  resistance 0.05230;
}
object overhead_line_conductor {
  name ID_2826;
  rating.summer.continuous 32.2;
  geometric_mean_radius 0.00416 ft;
  resistance 3.80000;
}
object overhead_line_conductor {
  name ID_2827;
  rating.summer.continuous 600.0;
  geometric_mean_radius 0.00801 ft;
  resistance 0.30590;
}
object overhead_line_conductor {
  name ID_2828;
  rating.summer.continuous 120.0;
  geometric_mean_radius 0.00700 ft;
  resistance 2.40970;
}
object overhead_line_conductor {
  name ID_2829;
  rating.summer.continuous 204.0;
  geometric_mean_radius 0.00836 ft;
  resistance 0.94500;
}
object overhead_line_conductor {
  name ID_2830;
  rating.summer.continuous 197.0;
  geometric_mean_radius 0.00883 ft;
  resistance 1.51970;
}
object overhead_line_conductor {
  name ID_2831;
  rating.summer.continuous 891.0;
  geometric_mean_radius 0.03550 ft;
  resistance 0.14420;
}
object line_spacing {
  name ID_192;
  distance_CN 39.396 in;
}
object line_spacing {
  name ID_193;
  distance_AB 48.0 in;
  distance_BC 48.0 in;
  distance_AC 48.0 in;
  distance_AN 39.396 in;
  distance_BN 39.396 in;
  distance_CN 39.396 in;
}
object line_spacing {
  name ID_194;
  distance_BN 39.396 in;
}
object line_spacing {
  name ID_195;
  distance_AN 39.396 in;
}
object line_spacing {
  name ID_196;
  distance_BN 36.0 in;
}
object line_spacing {
  name ID_197;
  distance_AN 39.4 in;
}
object line_spacing {
  name ID_198;
  distance_AN 36.0 in;
}
object line_spacing {
  name ID_199;
  distance_CN 36.0 in;
}
object line_spacing {
  name ID_200;
  distance_AB 48.0 in;
  distance_BC 48.0 in;
  distance_AC 48.0 in;
  distance_AN 36.0 in;
  distance_BN 36.0 in;
  distance_CN 36.0 in;
}
object line_spacing {
  name ID_201;
  distance_BC 48.0 in;
  distance_BN 39.396 in;
  distance_CN 39.396 in;
}
object line_spacing {
  name ID_202;
  distance_AC 48.0 in;
  distance_AN 39.396 in;
  distance_CN 39.396 in;
}
object line_spacing {
  name ID_203;
  distance_AB 48.0 in;
  distance_AN 39.396 in;
  distance_BN 39.396 in;
}
object line_spacing {
  name ID_204;
  distance_AB 48.0 in;
  distance_AN 36.0 in;
  distance_BN 36.0 in;
}
object line_configuration {
  name ID_132;
  conductor_C ID_2821;
  conductor_N ID_2821;
  spacing ID_192;
}
object line_configuration {
  name ID_133;
  conductor_C ID_2822;
  conductor_N ID_2822;
  spacing ID_192;
}
object line_configuration {
  name ID_134;
  conductor_A ID_2823;
  conductor_B ID_2823;
  conductor_C ID_2823;
  conductor_N ID_2823;
  spacing ID_193;
}
object line_configuration {
  name ID_135;
  conductor_B ID_2823;
  conductor_N ID_2823;
  spacing ID_194;
}
object line_configuration {
  name ID_136;
  conductor_A ID_2821;
  conductor_B ID_2821;
  conductor_C ID_2821;
  conductor_N ID_2821;
  spacing ID_193;
}
object line_configuration {
  name ID_137;
  conductor_A ID_2824;
  conductor_B ID_2824;
  conductor_C ID_2824;
  conductor_N ID_2824;
  spacing ID_193;
}
object line_configuration {
  name ID_138;
  conductor_A ID_2823;
  conductor_N ID_2823;
  spacing ID_195;
}
object line_configuration {
  name ID_139;
  conductor_A ID_2823;
  conductor_B ID_2823;
  conductor_C ID_2823;
  conductor_N ID_2823;
  spacing ID_193;
}
object line_configuration {
  name ID_140;
  conductor_A ID_2824;
  conductor_B ID_2824;
  conductor_C ID_2824;
  conductor_N ID_2824;
  spacing ID_193;
}
object line_configuration {
  name ID_141;
  conductor_B ID_2824;
  conductor_N ID_2824;
  spacing ID_194;
}
object line_configuration {
  name ID_142;
  conductor_A ID_2825;
  conductor_B ID_2825;
  conductor_C ID_2825;
  conductor_N ID_2825;
  spacing ID_193;
}
object line_configuration {
  name ID_143;
  conductor_A ID_2822;
  conductor_N ID_2822;
  spacing ID_195;
}
object line_configuration {
  name ID_144;
  conductor_A ID_2822;
  conductor_B ID_2822;
  conductor_C ID_2822;
  conductor_N ID_2822;
  spacing ID_193;
}
object line_configuration {
  name ID_145;
  conductor_B ID_2822;
  conductor_N ID_2822;
  spacing ID_194;
}
object line_configuration {
  name ID_146;
  conductor_C ID_2823;
  conductor_N ID_2823;
  spacing ID_192;
}
object line_configuration {
  name ID_147;
  conductor_A ID_2826;
  conductor_N ID_2826;
  spacing ID_195;
}
object line_configuration {
  name ID_148;
  conductor_A ID_2824;
  conductor_N ID_2824;
  spacing ID_195;
}
object line_configuration {
  name ID_149;
  conductor_A ID_2827;
  conductor_B ID_2827;
  conductor_C ID_2827;
  conductor_N ID_2827;
  spacing ID_193;
}
object line_configuration {
  name ID_150;
  conductor_B ID_4498;
  conductor_N ID_4498;
  spacing ID_196;
}
object line_configuration {
  name ID_151;
  conductor_A ID_2828;
  conductor_B ID_2828;
  conductor_C ID_2828;
  conductor_N ID_2828;
  spacing ID_193;
}
object line_configuration {
  name ID_152;
  conductor_A ID_2821;
  conductor_B ID_2821;
  conductor_C ID_2821;
  conductor_N ID_2821;
  spacing ID_193;
}
object line_configuration {
  name ID_153;
  conductor_B ID_2821;
  conductor_N ID_2821;
  spacing ID_194;
}
object line_configuration {
  name ID_154;
  conductor_A ID_2822;
  conductor_N ID_2822;
  spacing ID_197;
}
object line_configuration {
  name ID_155;
  conductor_A ID_4498;
  conductor_N ID_4498;
  spacing ID_198;
}
object line_configuration {
  name ID_156;
  conductor_C ID_4498;
  conductor_N ID_4498;
  spacing ID_199;
}
object line_configuration {
  name ID_157;
  conductor_A ID_4499;
  conductor_N ID_4499;
  spacing ID_198;
}
object line_configuration {
  name ID_158;
  conductor_A ID_4498;
  conductor_B ID_4498;
  conductor_C ID_4498;
  conductor_N ID_4498;
  spacing ID_200;
}
object line_configuration {
  name ID_159;
  conductor_A ID_2825;
  conductor_B ID_2825;
  conductor_C ID_2825;
  conductor_N ID_2825;
  spacing ID_193;
}
object line_configuration {
  name ID_160;
  conductor_B ID_2823;
  conductor_N ID_2823;
  spacing ID_194;
}
object line_configuration {
  name ID_161;
  conductor_A ID_2825;
  conductor_B ID_2825;
  conductor_C ID_2825;
  conductor_N ID_2825;
  spacing ID_193;
}
object line_configuration {
  name ID_162;
  conductor_A ID_2821;
  conductor_N ID_2821;
  spacing ID_195;
}
object line_configuration {
  name ID_163;
  conductor_A ID_2828;
  conductor_B ID_2828;
  conductor_C ID_2828;
  conductor_N ID_2828;
  spacing ID_193;
}
object line_configuration {
  name ID_164;
  conductor_A ID_2829;
  conductor_B ID_2829;
  conductor_C ID_2829;
  conductor_N ID_2829;
  spacing ID_193;
}
object line_configuration {
  name ID_165;
  conductor_B ID_2823;
  conductor_C ID_2823;
  conductor_N ID_2823;
  spacing ID_201;
}
object line_configuration {
  name ID_166;
  conductor_A ID_2830;
  conductor_B ID_2830;
  conductor_C ID_2830;
  conductor_N ID_2830;
  spacing ID_193;
}
object line_configuration {
  name ID_167;
  conductor_B ID_2821;
  conductor_C ID_2821;
  conductor_N ID_2821;
  spacing ID_201;
}
object line_configuration {
  name ID_168;
  conductor_C ID_2828;
  conductor_N ID_2828;
  spacing ID_192;
}
object line_configuration {
  name ID_169;
  conductor_A ID_2822;
  conductor_B ID_2822;
  conductor_C ID_2822;
  conductor_N ID_2822;
  spacing ID_193;
}
object line_configuration {
  name ID_170;
  conductor_C ID_4499;
  conductor_N ID_4499;
  spacing ID_199;
}
object line_configuration {
  name ID_171;
  conductor_A ID_2830;
  conductor_N ID_2830;
  spacing ID_195;
}
object line_configuration {
  name ID_172;
  conductor_A ID_2822;
  conductor_C ID_2822;
  conductor_N ID_2822;
  spacing ID_202;
}
object line_configuration {
  name ID_173;
  conductor_A ID_2828;
  conductor_C ID_2828;
  conductor_N ID_2828;
  spacing ID_202;
}
object line_configuration {
  name ID_174;
  conductor_A ID_2821;
  conductor_C ID_2821;
  conductor_N ID_2821;
  spacing ID_202;
}
object line_configuration {
  name ID_175;
  conductor_A ID_2823;
  conductor_C ID_2823;
  conductor_N ID_2823;
  spacing ID_202;
}
object line_configuration {
  name ID_176;
  conductor_A ID_2822;
  conductor_B ID_2822;
  conductor_N ID_2822;
  spacing ID_203;
}
object line_configuration {
  name ID_177;
  conductor_A ID_2821;
  conductor_B ID_2821;
  conductor_N ID_2821;
  spacing ID_203;
}
object line_configuration {
  name ID_178;
  conductor_B ID_4499;
  conductor_N ID_4499;
  spacing ID_196;
}
object line_configuration {
  name ID_179;
  conductor_B ID_2821;
  conductor_N ID_2821;
  spacing ID_194;
}
object line_configuration {
  name ID_180;
  conductor_A ID_2824;
  conductor_B ID_2824;
  conductor_C ID_2824;
  conductor_N ID_2824;
  spacing ID_193;
}
object line_configuration {
  name ID_181;
  conductor_A ID_2824;
  conductor_B ID_2824;
  conductor_C ID_2824;
  conductor_N ID_2824;
  spacing ID_193;
}
object line_configuration {
  name ID_182;
  conductor_C ID_2825;
  conductor_N ID_2825;
  spacing ID_192;
}
object line_configuration {
  name ID_183;
  conductor_A ID_4498;
  conductor_B ID_4498;
  conductor_N ID_4498;
  spacing ID_204;
}
object line_configuration {
  name ID_184;
  conductor_C ID_2829;
  conductor_N ID_2829;
  spacing ID_192;
}
object line_configuration {
  name ID_185;
  conductor_B ID_2823;
  conductor_C ID_2823;
  conductor_N ID_2823;
  spacing ID_201;
}
object line_configuration {
  name ID_186;
  conductor_A ID_2822;
  conductor_B ID_2822;
  conductor_C ID_2822;
  conductor_N ID_2822;
  spacing ID_200;
}
object line_configuration {
  name ID_187;
  conductor_B ID_2822;
  conductor_C ID_2822;
  conductor_N ID_2822;
  spacing ID_201;
}
object line_configuration {
  name ID_188;
  conductor_C ID_2823;
  conductor_N ID_2823;
  spacing ID_192;
}
object line_configuration {
  name ID_189;
  conductor_A ID_2824;
  conductor_C ID_2824;
  conductor_N ID_2824;
  spacing ID_202;
}
object line_configuration {
  name ID_190;
  conductor_C ID_2826;
  conductor_N ID_2826;
  spacing ID_192;
}
object line_configuration {
  name ID_191;
  conductor_C ID_2824;
  conductor_N ID_2824;
  spacing ID_192;
}
object triplex_line_conductor {
  name triplex_4/0 AA;
  resistance 0.48;
  geometric_mean_radius 0.0158;
  rating.summer.continuous 1000.0;
  rating.summer.emergency 1000.0;
  rating.winter.continuous 1000.0;
  rating.winter.emergency 1000.0;
}
object triplex_line_configuration {
  name ID_3644;
  conductor_1 triplex_4/0 AA;
  conductor_2 triplex_4/0 AA;
  conductor_N triplex_4/0 AA;
  insulation_thickness 0.08;
  diameter 0.522;
}
object underground_line_conductor {
  name ID_4498;
  rating.summer.continuous 214.0;
  outer_diameter 1.32;
  conductor_gmr 0.0177 ft;
  conductor_diameter 0.528;
  conductor_resistance 0.433488;
  neutral_gmr 0.00208 ft;
  neutral_resistance 14.87;
  neutral_diameter 0.0641;
  neutral_strands 11.0;
  insulation_relative_permitivitty 2.3;
}
object underground_line_conductor {
  name ID_4499;
  rating.summer.continuous 112.0;
  outer_diameter 1.09;
  conductor_gmr 0.0088 ft;
  conductor_diameter 0.292;
  conductor_resistance 1.38336;
  neutral_gmr 0.00208 ft;
  neutral_resistance 14.87;
  neutral_diameter 0.0641;
  neutral_strands 6.0;
  insulation_relative_permitivitty 2.3;
}
object fuse {
  name R2-35-00-1_fuse_1;
// downstream 5.94 kva on AS
  phases AN;
  from R2-35-00-1_node_164;
  to R2-35-00-1_node_528;
  current_limit 40;
  status CLOSED;
  mean_replacement_time 3600;
}
object fuse {
  name R2-35-00-1_fuse_2;
// downstream 11.87 kva on ABS
  phases ABCN;
  from R2-35-00-1_node_163;
  to R2-35-00-1_node_471;
  current_limit 40;
  status CLOSED;
  mean_replacement_time 3600;
}
object fuse {
  name R2-35-00-1_fuse_3;
// downstream 5.94 kva on BS
  phases BN;
  from R2-35-00-1_node_156;
  to R2-35-00-1_node_522;
  current_limit 40;
  status CLOSED;
  mean_replacement_time 3600;
}
object fuse {
  name R2-35-00-1_fuse_4;
// downstream 11.73 kva on BS
  phases BN;
  from R2-35-00-1_node_154;
  to R2-35-00-1_node_466;
  current_limit 40;
  status CLOSED;
  mean_replacement_time 3600;
}
object fuse {
  name R2-35-00-1_fuse_5;
// downstream 12.98 kva on BS
  phases BN;
  from R2-35-00-1_node_154;
  to R2-35-00-1_node_523;
  current_limit 40;
  status CLOSED;
  mean_replacement_time 3600;
}
object fuse {
  name R2-35-00-1_fuse_6;
// downstream 57.09 kva on CS
  phases CN;
  from R2-35-00-1_node_328;
  to R2-35-00-1_node_511;
  current_limit 40;
  status CLOSED;
  mean_replacement_time 3600;
}
object fuse {
  name R2-35-00-1_fuse_7;
// downstream 14.08 kva on B
  phases BN;
  from R2-35-00-1_node_238;
  to R2-35-00-1_node_503;
  current_limit 40;
  status CLOSED;
  mean_replacement_time 3600;
}
object fuse {
  name R2-35-00-1_fuse_8;
// downstream 61.00 kva on BS
  phases BN;
  from R2-35-00-1_node_334;
  to R2-35-00-1_node_475;
  current_limit 40;
  status CLOSED;
  mean_replacement_time 3600;
}
object fuse {
  name R2-35-00-1_fuse_9;
// downstream 67.43 kva on C
  phases CN;
  from R2-35-00-1_node_361;
  to R2-35-00-1_node_477;
  current_limit 40;
  status CLOSED;
  mean_replacement_time 3600;
}
object fuse {
  name R2-35-00-1_fuse_10;
// downstream 7.17 kva on A
  phases AN;
  from R2-35-00-1_node_76;
  to R2-35-00-1_node_478;
  current_limit 40;
  status CLOSED;
  mean_replacement_time 3600;
}
object fuse {
  name R2-35-00-1_fuse_11;
// downstream 1524.15 kva on ABC
  phases ABCN;
  from R2-35-00-1_node_76;
  to R2-35-00-1_node_497;
  current_limit 65;
  status CLOSED;
  mean_replacement_time 3600;
}
object fuse {
  name R2-35-00-1_fuse_12;
// downstream 14.34 kva on A
  phases AN;
  from R2-35-00-1_node_185;
  to R2-35-00-1_node_501;
  current_limit 40;
  status CLOSED;
  mean_replacement_time 3600;
}
object fuse {
  name R2-35-00-1_fuse_13;
// downstream 35.30 kva on ABC
  phases ABCN;
  from R2-35-00-1_node_209;
  to R2-35-00-1_node_531;
  current_limit 40;
  status CLOSED;
  mean_replacement_time 3600;
}
object fuse {
  name R2-35-00-1_fuse_14;
// downstream 157.74 kva on ABCS
  phases ABCN;
  from R2-35-00-1_node_204;
  to R2-35-00-1_node_464;
  current_limit 40;
  status CLOSED;
  mean_replacement_time 3600;
}
object fuse {
  name R2-35-00-1_fuse_15;
// downstream 89.81 kva on ABC
  phases ABCN;
  from R2-35-00-1_node_241;
  to R2-35-00-1_node_447;
  current_limit 40;
  status CLOSED;
  mean_replacement_time 3600;
}
object fuse {
  name R2-35-00-1_fuse_16;
// downstream 5.94 kva on B
  phases BN;
  from R2-35-00-1_node_937;
  to R2-35-00-1_node_445;
  current_limit 40;
  status CLOSED;
  mean_replacement_time 3600;
}
object fuse {
  name R2-35-00-1_fuse_17;
// downstream 2610.79 kva on ABCS
  phases ABCN;
  from R2-35-00-1_node_330;
  to R2-35-00-1_node_507;
  current_limit 200;
  status CLOSED;
  mean_replacement_time 3600;
}
object fuse {
  name R2-35-00-1_fuse_18;
  phases CN;
  from R2-35-00-1_node_203;
  to R2-35-00-1_node_515;
  current_limit 50000;
  status CLOSED;
  mean_replacement_time 3600;
}
object fuse {
  name R2-35-00-1_fuse_19;
// downstream 82.26 kva on B
  phases BN;
  from R2-35-00-1_node_186;
  to R2-35-00-1_node_502;
  current_limit 40;
  status CLOSED;
  mean_replacement_time 3600;
}
object fuse {
  name R2-35-00-1_fuse_20;
  phases ABCN;
  from R2-35-00-1_node_202;
  to R2-35-00-1_node_527;
  current_limit 50000;
  status CLOSED;
  mean_replacement_time 3600;
}
object fuse {
  name R2-35-00-1_fuse_21;
// downstream 5.94 kva on A
  phases AN;
  from R2-35-00-1_node_247;
  to R2-35-00-1_node_540;
  current_limit 40;
  status CLOSED;
  mean_replacement_time 3600;
}
object fuse {
  name R2-35-00-1_fuse_22;
// downstream 17.81 kva on ABC
  phases ABCN;
  from R2-35-00-1_node_71;
  to R2-35-00-1_node_435;
  current_limit 40;
  status CLOSED;
  mean_replacement_time 3600;
}
object fuse {
  name R2-35-00-1_fuse_23;
  phases BN;
  from R2-35-00-1_node_65;
  to R2-35-00-1_node_479;
  current_limit 50000;
  status CLOSED;
  mean_replacement_time 3600;
}
object fuse {
  name R2-35-00-1_fuse_24;
// downstream 17.81 kva on ABC
  phases ABCN;
  from R2-35-00-1_node_70;
  to R2-35-00-1_node_436;
  current_limit 40;
  status CLOSED;
  mean_replacement_time 3600;
}
object fuse {
  name R2-35-00-1_fuse_25;
// downstream 120.79 kva on ABC
  phases ABCN;
  from R2-35-00-1_node_90;
  to R2-35-00-1_node_496;
  current_limit 40;
  status CLOSED;
  mean_replacement_time 3600;
}
object fuse {
  name R2-35-00-1_fuse_26;
// downstream 73.57 kva on ABC
  phases ABCN;
  from R2-35-00-1_node_69;
  to R2-35-00-1_node_446;
  current_limit 40;
  status CLOSED;
  mean_replacement_time 3600;
}
object fuse {
  name R2-35-00-1_fuse_27;
// downstream 17.81 kva on ABC
  phases ABCN;
  from R2-35-00-1_node_69;
  to R2-35-00-1_node_437;
  current_limit 40;
  status CLOSED;
  mean_replacement_time 3600;
}
object fuse {
  name R2-35-00-1_fuse_28;
// downstream 9.56 kva on A
  phases AN;
  from R2-35-00-1_node_89;
  to R2-35-00-1_node_482;
  current_limit 40;
  status CLOSED;
  mean_replacement_time 3600;
}
object fuse {
  name R2-35-00-1_fuse_29;
// downstream 43.01 kva on A
  phases AN;
  from R2-35-00-1_node_89;
  to R2-35-00-1_node_481;
  current_limit 40;
  status CLOSED;
  mean_replacement_time 3600;
}
object fuse {
  name R2-35-00-1_fuse_30;
// downstream 4.78 kva on A
  phases AN;
  from R2-35-00-1_node_95;
  to R2-35-00-1_node_480;
  current_limit 40;
  status CLOSED;
  mean_replacement_time 3600;
}
object fuse {
  name R2-35-00-1_fuse_31;
// downstream 11.95 kva on A
  phases AN;
  from R2-35-00-1_node_782;
  to R2-35-00-1_node_500;
  current_limit 40;
  status CLOSED;
  mean_replacement_time 3600;
}
object fuse {
  name R2-35-00-1_fuse_32;
// downstream 11.95 kva on A
  phases AN;
  from R2-35-00-1_node_500;
  to R2-35-00-1_node_499;
  current_limit 40;
  status CLOSED;
  mean_replacement_time 3600;
}
object fuse {
  name R2-35-00-1_fuse_33;
// downstream 5.94 kva on C
  phases CN;
  from R2-35-00-1_node_670;
  to R2-35-00-1_node_547;
  current_limit 40;
  status CLOSED;
  mean_replacement_time 3600;
}
object fuse {
  name R2-35-00-1_fuse_34;
// downstream 453.29 kva on ABS
  phases ABN;
  from R2-35-00-1_node_269;
  to R2-35-00-1_node_508;
  current_limit 40;
  status CLOSED;
  mean_replacement_time 3600;
}
object fuse {
  name R2-35-00-1_fuse_35;
// downstream 5.94 kva on AS
  phases AN;
  from R2-35-00-1_node_263;
  to R2-35-00-1_node_535;
  current_limit 40;
  status CLOSED;
  mean_replacement_time 3600;
}
object fuse {
  name R2-35-00-1_fuse_36;
  phases BN;
  from R2-35-00-1_node_260;
  to R2-35-00-1_node_534;
  current_limit 50000;
  status CLOSED;
  mean_replacement_time 3600;
}
object fuse {
  name R2-35-00-1_fuse_37;
// downstream 5.94 kva on B
  phases BN;
  from R2-35-00-1_node_290;
  to R2-35-00-1_node_537;
  current_limit 40;
  status CLOSED;
  mean_replacement_time 3600;
}
object fuse {
  name R2-35-00-1_fuse_38;
// downstream 5.94 kva on B
  phases BN;
  from R2-35-00-1_node_268;
  to R2-35-00-1_node_536;
  current_limit 40;
  status CLOSED;
  mean_replacement_time 3600;
}
object fuse {
  name R2-35-00-1_fuse_39;
// downstream 35.62 kva on BS
  phases BN;
  from R2-35-00-1_node_293;
  to R2-35-00-1_node_538;
  current_limit 40;
  status CLOSED;
  mean_replacement_time 3600;
}
object fuse {
  name R2-35-00-1_fuse_40;
// downstream 5.94 kva on B
  phases BN;
  from R2-35-00-1_node_255;
  to R2-35-00-1_node_544;
  current_limit 40;
  status CLOSED;
  mean_replacement_time 3600;
}
object fuse {
  name R2-35-00-1_fuse_41;
// downstream 5.94 kva on C
  phases CN;
  from R2-35-00-1_node_183;
  to R2-35-00-1_node_461;
  current_limit 40;
  status CLOSED;
  mean_replacement_time 3600;
}
object fuse {
  name R2-35-00-1_fuse_42;
// downstream 5.94 kva on CS
  phases CN;
  from R2-35-00-1_node_199;
  to R2-35-00-1_node_539;
  current_limit 40;
  status CLOSED;
  mean_replacement_time 3600;
}
object fuse {
  name R2-35-00-1_fuse_43;
// downstream 21.12 kva on AC
  phases ACN;
  from R2-35-00-1_node_283;
  to R2-35-00-1_node_498;
  current_limit 40;
  status CLOSED;
  mean_replacement_time 3600;
}
object fuse {
  name R2-35-00-1_fuse_44;
// downstream 11.87 kva on AS
  phases AN;
  from R2-35-00-1_node_300;
  to R2-35-00-1_node_468;
  current_limit 40;
  status CLOSED;
  mean_replacement_time 3600;
}
object fuse {
  name R2-35-00-1_fuse_45;
// downstream 27.90 kva on C
  phases CN;
  from R2-35-00-1_node_286;
  to R2-35-00-1_node_484;
  current_limit 40;
  status CLOSED;
  mean_replacement_time 3600;
}
object fuse {
  name R2-35-00-1_fuse_46;
// downstream 197.72 kva on ABC
  phases ABCN;
  from R2-35-00-1_node_308;
  to R2-35-00-1_node_509;
  current_limit 40;
  status CLOSED;
  mean_replacement_time 3600;
}
object fuse {
  name R2-35-00-1_fuse_47;
// downstream 7.17 kva on A
  phases AN;
  from R2-35-00-1_node_112;
  to R2-35-00-1_node_483;
  current_limit 40;
  status CLOSED;
  mean_replacement_time 3600;
}
object fuse {
  name R2-35-00-1_fuse_48;
// downstream 31.06 kva on A
  phases AN;
  from R2-35-00-1_node_309;
  to R2-35-00-1_node_487;
  current_limit 40;
  status CLOSED;
  mean_replacement_time 3600;
}
object fuse {
  name R2-35-00-1_fuse_49;
// downstream 5.94 kva on B
  phases BN;
  from R2-35-00-1_node_313;
  to R2-35-00-1_node_434;
  current_limit 40;
  status CLOSED;
  mean_replacement_time 3600;
}
object fuse {
  name R2-35-00-1_fuse_50;
// downstream 48.80 kva on A
  phases AN;
  from R2-35-00-1_node_245;
  to R2-35-00-1_node_444;
  current_limit 40;
  status CLOSED;
  mean_replacement_time 3600;
}
object fuse {
  name R2-35-00-1_fuse_51;
// downstream 120.25 kva on ABC
  phases ABCN;
  from R2-35-00-1_node_114;
  to R2-35-00-1_node_438;
  current_limit 40;
  status CLOSED;
  mean_replacement_time 3600;
}
object fuse {
  name R2-35-00-1_fuse_52;
// downstream 132.78 kva on B
  phases BN;
  from R2-35-00-1_node_134;
  to R2-35-00-1_node_488;
  current_limit 40;
  status CLOSED;
  mean_replacement_time 3600;
}
object fuse {
  name R2-35-00-1_fuse_53;
// downstream 67.43 kva on C
  phases CN;
  from R2-35-00-1_node_134;
  to R2-35-00-1_node_489;
  current_limit 40;
  status CLOSED;
  mean_replacement_time 3600;
}
object fuse {
  name R2-35-00-1_fuse_54;
// downstream 61.32 kva on ABC
  phases ABCN;
  from R2-35-00-1_node_317;
  to R2-35-00-1_node_494;
  current_limit 40;
  status CLOSED;
  mean_replacement_time 3600;
}
object fuse {
  name R2-35-00-1_fuse_55;
// downstream 11.87 kva on B
  phases BN;
  from R2-35-00-1_node_3;
  to R2-35-00-1_node_451;
  current_limit 40;
  status CLOSED;
  mean_replacement_time 3600;
}
object fuse {
  name R2-35-00-1_fuse_56;
// downstream 11.95 kva on A
  phases AN;
  from R2-35-00-1_node_318;
  to R2-35-00-1_node_469;
  current_limit 40;
  status CLOSED;
  mean_replacement_time 3600;
}
object fuse {
  name R2-35-00-1_fuse_57;
// downstream 75.50 kva on AS
  phases AN;
  from R2-35-00-1_node_316;
  to R2-35-00-1_node_546;
  current_limit 40;
  status CLOSED;
  mean_replacement_time 3600;
}
object fuse {
  name R2-35-00-1_fuse_58;
// downstream 262.12 kva on ABC
  phases ABCN;
  from R2-35-00-1_node_316;
  to R2-35-00-1_node_495;
  current_limit 40;
  status CLOSED;
  mean_replacement_time 3600;
}
object fuse {
  name R2-35-00-1_fuse_59;
// downstream 5.94 kva on B
  phases BN;
  from R2-35-00-1_node_152;
  to R2-35-00-1_node_458;
  current_limit 40;
  status CLOSED;
  mean_replacement_time 3600;
}
object fuse {
  name R2-35-00-1_fuse_60;
// downstream 55.80 kva on C
  phases CN;
  from R2-35-00-1_node_137;
  to R2-35-00-1_node_490;
  current_limit 40;
  status CLOSED;
  mean_replacement_time 3600;
}
object fuse {
  name R2-35-00-1_fuse_61;
// downstream 35.30 kva on ABS
  phases ABN;
  from R2-35-00-1_node_230;
  to R2-35-00-1_node_505;
  current_limit 40;
  status CLOSED;
  mean_replacement_time 3600;
}
object fuse {
  name R2-35-00-1_fuse_62;
// downstream 71.24 kva on CS
  phases CN;
  from R2-35-00-1_node_218;
  to R2-35-00-1_node_506;
  current_limit 40;
  status CLOSED;
  mean_replacement_time 3600;
}
object fuse {
  name R2-35-00-1_fuse_63;
  phases ABCN;
  from R2-35-00-1_node_188;
  to R2-35-00-1_node_532;
  current_limit 50000;
  status CLOSED;
  mean_replacement_time 3600;
}
object fuse {
  name R2-35-00-1_fuse_64;
// downstream 911.00 kva on ABC
  phases ABCN;
  from R2-35-00-1_node_117;
  to R2-35-00-1_node_485;
  current_limit 40;
  status CLOSED;
  mean_replacement_time 3600;
}
object fuse {
  name R2-35-00-1_fuse_65;
// downstream 5.94 kva on B
  phases BN;
  from R2-35-00-1_node_324;
  to R2-35-00-1_node_542;
  current_limit 40;
  status CLOSED;
  mean_replacement_time 3600;
}
object fuse {
  name R2-35-00-1_fuse_66;
// downstream 103.75 kva on ABC
  phases ABCN;
  from R2-35-00-1_node_138;
  to R2-35-00-1_node_448;
  current_limit 40;
  status CLOSED;
  mean_replacement_time 3600;
}
object fuse {
  name R2-35-00-1_fuse_67;
// downstream 42.10 kva on C
  phases CN;
  from R2-35-00-1_node_321;
  to R2-35-00-1_node_529;
  current_limit 40;
  status CLOSED;
  mean_replacement_time 3600;
}
object fuse {
  name R2-35-00-1_fuse_68;
// downstream 5.94 kva on B
  phases BN;
  from R2-35-00-1_node_6;
  to R2-35-00-1_node_470;
  current_limit 40;
  status CLOSED;
  mean_replacement_time 3600;
}
object fuse {
  name R2-35-00-1_fuse_69;
// downstream 5.94 kva on B
  phases BN;
  from R2-35-00-1_node_4;
  to R2-35-00-1_node_474;
  current_limit 40;
  status CLOSED;
  mean_replacement_time 3600;
}
object fuse {
  name R2-35-00-1_fuse_70;
// downstream 145.93 kva on BC
  phases BCN;
  from R2-35-00-1_node_143;
  to R2-35-00-1_node_491;
  current_limit 40;
  status CLOSED;
  mean_replacement_time 3600;
}
object fuse {
  name R2-35-00-1_fuse_71;
// downstream 11.38 kva on AC
  phases ACN;
  from R2-35-00-1_node_140;
  to R2-35-00-1_node_449;
  current_limit 40;
  status CLOSED;
  mean_replacement_time 3600;
}
object fuse {
  name R2-35-00-1_fuse_72;
// downstream 202.24 kva on BCS
  phases BCN;
  from R2-35-00-1_node_235;
  to R2-35-00-1_node_504;
  current_limit 40;
  status CLOSED;
  mean_replacement_time 3600;
}
object fuse {
  name R2-35-00-1_fuse_73;
// downstream 23.75 kva on ABC
  phases ABCN;
  from R2-35-00-1_node_311;
  to R2-35-00-1_node_460;
  current_limit 40;
  status CLOSED;
  mean_replacement_time 3600;
}
object fuse {
  name R2-35-00-1_fuse_74;
// downstream 5.94 kva on B
  phases BN;
  from R2-35-00-1_node_176;
  to R2-35-00-1_node_526;
  current_limit 40;
  status CLOSED;
  mean_replacement_time 3600;
}
object fuse {
  name R2-35-00-1_fuse_75;
// downstream 73.37 kva on C
  phases CN;
  from R2-35-00-1_node_141;
  to R2-35-00-1_node_492;
  current_limit 40;
  status CLOSED;
  mean_replacement_time 3600;
}
object fuse {
  name R2-35-00-1_fuse_76;
  phases AN;
  from R2-35-00-1_node_305;
  to R2-35-00-1_node_472;
  current_limit 50000;
  status CLOSED;
  mean_replacement_time 3600;
}
object fuse {
  name R2-35-00-1_fuse_77;
// downstream 5.94 kva on C
  phases CN;
  from R2-35-00-1_node_150;
  to R2-35-00-1_node_541;
  current_limit 40;
  status CLOSED;
  mean_replacement_time 3600;
}
object fuse {
  name R2-35-00-1_fuse_78;
// downstream 11.87 kva on A
  phases AN;
  from R2-35-00-1_node_303;
  to R2-35-00-1_node_525;
  current_limit 40;
  status CLOSED;
  mean_replacement_time 3600;
}
object fuse {
  name R2-35-00-1_fuse_79;
// downstream 5.94 kva on A
  phases AN;
  from R2-35-00-1_node_303;
  to R2-35-00-1_node_524;
  current_limit 40;
  status CLOSED;
  mean_replacement_time 3600;
}
object fuse {
  name R2-35-00-1_fuse_80;
// downstream 5.94 kva on C
  phases CN;
  from R2-35-00-1_node_100;
  to R2-35-00-1_node_457;
  current_limit 40;
  status CLOSED;
  mean_replacement_time 3600;
}
object fuse {
  name R2-35-00-1_fuse_81;
  phases CN;
  from R2-35-00-1_node_147;
  to R2-35-00-1_node_465;
  current_limit 50000;
  status CLOSED;
  mean_replacement_time 3600;
}
object fuse {
  name R2-35-00-1_fuse_82;
// downstream 13.28 kva on ABC
  phases ABCN;
  from R2-35-00-1_node_493;
  to R2-35-00-1_node_1032;
  current_limit 40;
  status CLOSED;
  mean_replacement_time 3600;
}
object fuse {
  name R2-35-00-1_fuse_83;
// downstream 5.94 kva on C
  phases CN;
  from R2-35-00-1_node_151;
  to R2-35-00-1_node_545;
  current_limit 40;
  status CLOSED;
  mean_replacement_time 3600;
}
object fuse {
  name R2-35-00-1_fuse_84;
// downstream 70.61 kva on ABCS
  phases ABCN;
  from R2-35-00-1_node_40;
  to R2-35-00-1_node_467;
  current_limit 40;
  status CLOSED;
  mean_replacement_time 3600;
}
object fuse {
  name R2-35-00-1_fuse_85;
  phases CN;
  from R2-35-00-1_node_26;
  to R2-35-00-1_node_513;
  current_limit 50000;
  status CLOSED;
  mean_replacement_time 3600;
}
object fuse {
  name R2-35-00-1_fuse_86;
// downstream 5.94 kva on B
  phases BN;
  from R2-35-00-1_node_709;
  to R2-35-00-1_node_456;
  current_limit 40;
  status CLOSED;
  mean_replacement_time 3600;
}
object fuse {
  name R2-35-00-1_fuse_87;
// downstream 460.73 kva on ABCS
  phases ABCN;
  from R2-35-00-1_node_44;
  to R2-35-00-1_node_443;
  current_limit 40;
  status CLOSED;
  mean_replacement_time 3600;
}
object fuse {
  name R2-35-00-1_fuse_88;
// downstream 714.34 kva on ABCS
  phases ABCN;
  from R2-35-00-1_node_44;
  to R2-35-00-1_node_442;
  current_limit 40;
  status CLOSED;
  mean_replacement_time 3600;
}
object fuse {
  name R2-35-00-1_fuse_89;
// downstream 613.95 kva on ABCS
  phases ABCN;
  from R2-35-00-1_node_44;
  to R2-35-00-1_node_439;
  current_limit 40;
  status CLOSED;
  mean_replacement_time 3600;
}
object fuse {
  name R2-35-00-1_fuse_90;
// downstream 5.94 kva on CS
  phases CN;
  from R2-35-00-1_node_712;
  to R2-35-00-1_node_516;
  current_limit 40;
  status CLOSED;
  mean_replacement_time 3600;
}
object fuse {
  name R2-35-00-1_fuse_91;
// downstream 5.94 kva on A
  phases AN;
  from R2-35-00-1_node_53;
  to R2-35-00-1_node_533;
  current_limit 40;
  status CLOSED;
  mean_replacement_time 3600;
}
object fuse {
  name R2-35-00-1_fuse_92;
// downstream 5.94 kva on A
  phases AN;
  from R2-35-00-1_node_43;
  to R2-35-00-1_node_463;
  current_limit 40;
  status CLOSED;
  mean_replacement_time 3600;
}
object fuse {
  name R2-35-00-1_fuse_93;
// downstream 7.17 kva on A
  phases AN;
  from R2-35-00-1_node_347;
  to R2-35-00-1_node_514;
  current_limit 40;
  status CLOSED;
  mean_replacement_time 3600;
}
object fuse {
  name R2-35-00-1_fuse_94;
// downstream 35.48 kva on BS
  phases BN;
  from R2-35-00-1_node_173;
  to R2-35-00-1_node_510;
  current_limit 40;
  status CLOSED;
  mean_replacement_time 3600;
}
object fuse {
  name R2-35-00-1_fuse_95;
// downstream 1040.53 kva on ABC
  phases ABCN;
  from R2-35-00-1_node_945;
  to R2-35-00-1_node_486;
  current_limit 65;
  status CLOSED;
  mean_replacement_time 3600;
}
...